Circuit: * D:\pcbs\ttm\doc\NE555Blink.asc

Direct Newton iteration for .op point succeeded.

Date: Tue Jan 01 16:47:38 2019
Total elapsed time: 0.080 seconds.

tnom = 27
temp = 27
method = modified trap
totiter = 15834
traniter = 15826
tranpoints = 3556
accept = 2764
rejected = 792
matrix size = 17
fillins = 0
solver = Normal
Matrix Compiler1:      31 opcodes  0.2/[0.1]/0.1
Matrix Compiler2: 1007 bytes object code size  0.1/0.1/[0.1]


